opendss/LVTestCase/data/PV/PV_471.txt
New generator.m_gen37 Phases=1 Bus1=682.2 kV=0.23 kW=1 PF=0.95 Yearly=NM_Shape_7
New generator.m_gen38 Phases=1 Bus1=688.2 kV=0.23 kW=1 PF=0.95 Yearly=NM_Shape_102
New generator.m_gen34 Phases=1 Bus1=629.1 kV=0.23 kW=1 PF=0.95 Yearly=NM_Shape_77
New generator.m_gen22 Phases=1 Bus1=388.1 kV=0.23 kW=1 PF=0.95 Yearly=PV_Shape_138
New generator.m_gen55 Phases=1 Bus1=906.1 kV=0.23 kW=1 PF=0.95 Yearly=NM_Shape_47
New generator.m_gen43 Phases=1 Bus1=780.3 kV=0.23 kW=1 PF=0.95 Yearly=PV_Shape_12
New generator.m_gen33 Phases=1 Bus1=619.3 kV=0.23 kW=1 PF=0.95 Yearly=PV_Shape_128
New generator.m_gen4 Phases=1 Bus1=73.1 kV=0.23 kW=1 PF=0.95 Yearly=PV_Shape_127
New generator.m_gen42 Phases=1 Bus1=778.3 kV=0.23 kW=1 PF=0.95 Yearly=NM_Shape_60
New generator.m_gen24 Phases=1 Bus1=458.3 kV=0.23 kW=1 PF=0.95 Yearly=NM_Shape_11
New generator.m_gen15 Phases=1 Bus1=314.2 kV=0.23 kW=1 PF=0.95 Yearly=NM_Shape_115
